/home/yuji_morgen1/shimo/SMJM_SimCaseSever/DualSPHysics/case_DualSPHysics/SMJM_Sloshing/SMJM_Sloshing_DBC/Sloshing_DBC_Def.xml
/home/yuji_morgen1/shimo/SMJM_SimCaseSever/DualSPHysics/case_DualSPHysics/SMJM_Sloshing/SMJM_Sloshing_DBC/#Sloshing_DBC_Def.xml#
